
 ANSYS Mechanical Enterprise Academic Student      


 *------------------------------------------------------------------*
 |                                                                  |
 |   W E L C O M E   T O   T H E   A N S Y S (R)  P R O G R A M     |
 |                                                                  |
 *------------------------------------------------------------------*




 ***************************************************************
 *            ANSYS 2021 R1          LEGAL NOTICES             *
 ***************************************************************
 *                                                             *
 * Copyright 1971-2021 ANSYS, Inc.  All rights reserved.       *
 * Unauthorized use, distribution or duplication is            *
 * prohibited.                                                 *
 *                                                             *
 * Ansys is a registered trademark of ANSYS, Inc. or its       *
 * subsidiaries in the United States or other countries.       *
 * See the ANSYS, Inc. online documentation or the ANSYS, Inc. *
 * documentation CD or online help for the complete Legal      *
 * Notice.                                                     *
 *                                                             *
 ***************************************************************
 *                                                             *
 * THIS ANSYS SOFTWARE PRODUCT AND PROGRAM DOCUMENTATION       *
 * INCLUDE TRADE SECRETS AND CONFIDENTIAL AND PROPRIETARY      *
 * PRODUCTS OF ANSYS, INC., ITS SUBSIDIARIES, OR LICENSORS.    *
 * The software products and documentation are furnished by    *
 * ANSYS, Inc. or its subsidiaries under a software license    *
 * agreement that contains provisions concerning               *
 * non-disclosure, copying, length and nature of use,          *
 * compliance with exporting laws, warranties, disclaimers,    *
 * limitations of liability, and remedies, and other           *
 * provisions.  The software products and documentation may be *
 * used, disclosed, transferred, or copied only in accordance  *
 * with the terms and conditions of that software license      *
 * agreement.                                                  *
 *                                                             *
 * ANSYS, Inc. is a UL registered                              *
 * ISO 9001:2015 company.                                      *
 *                                                             *
 ***************************************************************
 *                                                             *
 * This product is subject to U.S. laws governing export and   *
 * re-export.                                                  *
 *                                                             *
 * For U.S. Government users, except as specifically granted   *
 * by the ANSYS, Inc. software license agreement, the use,     *
 * duplication, or disclosure by the United States Government  *
 * is subject to restrictions stated in the ANSYS, Inc.        *
 * software license agreement and FAR 12.212 (for non-DOD      *
 * licenses).                                                  *
 *                                                             *
 ***************************************************************

 2021 R1 
     
 Point Releases and Patches installed:   
     
 Academic Student 2021 R1
 Aqwa 2021 R1
 EnSight 2021 R1 
 FENSAP-ICE 2021 R1  


          *****  ANSYS COMMAND LINE ARGUMENTS  *****
  BATCH MODE REQUESTED (-b)    = NOLIST
  INPUT FILE COPY MODE (-c)    = COPY
  DISTRIBUTED MEMORY PARALLEL REQUESTED
       2 PARALLEL PROCESSES REQUESTED WITH SINGLE THREAD PER PROCESS
    TOTAL OF     2 CORES REQUESTED
  INPUT FILE NAME              = C:\Users\krylo\AppData\Local\Temp\WB_krylo_6532_2\_ProjectScratch\Scr0FC7\dummy.dat
  OUTPUT FILE NAME             = C:\Users\krylo\AppData\Local\Temp\WB_krylo_6532_2\_ProjectScratch\Scr0FC7\solve.out
  START-UP FILE MODE           = NOREAD
  STOP FILE MODE               = NOREAD

 RELEASE= 2021 R1              BUILD= 21.1      UP20201109   VERSION=WINDOWS x64 
 CURRENT JOBNAME=file0  12:37:35  APR 03, 2021 CP=      0.406


 PARAMETER _DS_PROGRESS =     999.0000000    

 /INPUT FILE= ds.dat  LINE=       0



 *** NOTE ***                            CP =       0.531   TIME= 12:37:35
 The /CONFIG,NOELDB command is not valid in a Distributed ANSYS          
 solution.  Command is ignored.                                          

 *GET  _WALLSTRT  FROM  ACTI  ITEM=TIME WALL  VALUE=  12.6263889    

 TITLE= 
 wbnew--Static Structural (A5)                                                 

  ACT Extensions:
      LSDYNA, 2021.1
      5f463412-bd3e-484b-87e7-cbc0a665e474, wbex
  

 SET PARAMETER DIMENSIONS ON  _WB_PROJECTSCRATCH_DIR
  TYPE=STRI  DIMENSIONS=      248        1        1

 PARAMETER _WB_PROJECTSCRATCH_DIR(1) = C:\Users\krylo\AppData\Local\Temp\WB_krylo_6532_2\_ProjectScratch\Scr0FC7\

 SET PARAMETER DIMENSIONS ON  _WB_SOLVERFILES_DIR
  TYPE=STRI  DIMENSIONS=      248        1        1

 PARAMETER _WB_SOLVERFILES_DIR(1) = C:\Users\krylo\AppData\Local\Temp\WB_krylo_6532_2\wbnew_files\dp0\SYS\MECH\

 SET PARAMETER DIMENSIONS ON  _WB_USERFILES_DIR
  TYPE=STRI  DIMENSIONS=      248        1        1

 PARAMETER _WB_USERFILES_DIR(1) = C:\Users\krylo\AppData\Local\Temp\WB_krylo_6532_2\wbnew_files\user_files\
 --- Data in consistent NMM units. See Solving Units in the help system for more

 MPA UNITS SPECIFIED FOR INTERNAL    
  LENGTH      = MILLIMETERS (mm)
  MASS        = TONNE (Mg)
  TIME        = SECONDS (sec)
  TEMPERATURE = CELSIUS (C)
  TOFFSET     = 273.0
  FORCE       = NEWTON (N)
  HEAT        = MILLIJOULES (mJ)

 INPUT  UNITS ARE ALSO SET TO MPA 

 *** ANSYS - ENGINEERING ANALYSIS SYSTEM  RELEASE 2021 R1          21.1     ***
 DISTRIBUTED ANSYS Mechanical Enterprise Academic Student      

 00000000  VERSION=WINDOWS x64   12:37:35  APR 03, 2021 CP=      0.531

 wbnew--Static Structural (A5)                                                 



          ***** ANSYS ANALYSIS DEFINITION (PREP7) *****
 *********** Nodes for the whole assembly ***********
 *********** Elements for Body 1 "Retaining Ring" ***********
 *********** Elements for Body 2 "Pressure Cap" ***********
 *********** Send User Defined Coordinate System(s) ***********
 *********** Set Reference Temperature ***********
 *********** Send Materials ***********
 *********** Send Sheet Properties ***********
 *********** Create Contact "Frictionless - Retaining Ring To Pressure Cap" ****
             Real Constant Set For Above Contact Is 4 & 3
 *********** Fixed Supports ***********
 *********** Send Compression Only Support ***********
 *********** Define Pressure Using Surface Effect Elements ***********


 ***** ROUTINE COMPLETED *****  CP =         0.656


 --- Number of total nodes = 681
 --- Number of contact elements = 64
 --- Number of spring elements = 0
 --- Number of bearing elements = 0
 --- Number of solid elements = 189
 --- Number of condensed parts = 0
 --- Number of total elements = 254

 *GET  _WALLBSOL  FROM  ACTI  ITEM=TIME WALL  VALUE=  12.6263889    
 ****************************************************************************
 *************************    SOLUTION       ********************************
 ****************************************************************************

 *****  ANSYS SOLUTION ROUTINE  *****


 PERFORM A STATIC ANALYSIS
  THIS WILL BE A NEW ANALYSIS

 PARAMETER _THICKRATIO =     0.000000000    

 USE SPARSE MATRIX DIRECT SOLVER

 CONTACT INFORMATION PRINTOUT LEVEL       1

 DO NOT COMBINE ELEMENT MATRIX FILES (.emat) AFTER DISTRIBUTED PARALLEL SOLUTION

 DO NOT COMBINE ELEMENT SAVE DATA FILES (.esav) AFTER DISTRIBUTED PARALLEL SOLUTION

 NLDIAG: Nonlinear diagnostics CONT option is set to ON. 
         Writing frequency : each ITERATION.

 DEFINE RESTART CONTROL FOR LOADSTEP LAST
 AT FREQUENCY OF LAST AND NUMBER FOR OVERWRITE IS   -1

 DELETE RESTART FILES OF ENDSTEP
 ****************************************************
 ******************* SOLVE FOR LS 1 OF 1 ****************

 SELECT       FOR ITEM=TYPE COMPONENT=    
  IN RANGE         7 TO          7 STEP          1

         18  ELEMENTS (OF        254  DEFINED) SELECTED BY  ESEL  COMMAND.

 SELECT      ALL NODES HAVING ANY ELEMENT IN ELEMENT SET.

         37 NODES (OF        681  DEFINED) SELECTED FROM
       18 SELECTED ELEMENTS BY NSLE COMMAND.

 GENERATE SURFACE LOAD PRES ON SURFACE DEFINED BY ALL SELECTED NODES
 VALUES= 0.100000000      0.00000000    

 NUMBER OF PRES ELEMENT FACE LOADS STORED =         18

 ALL SELECT   FOR ITEM=NODE COMPONENT=    
  IN RANGE         1 TO        681 STEP          1

        681  NODES (OF        681  DEFINED) SELECTED BY NSEL  COMMAND.

 ALL SELECT   FOR ITEM=ELEM COMPONENT=    
  IN RANGE         1 TO        254 STEP          1

        254  ELEMENTS (OF        254  DEFINED) SELECTED BY  ESEL  COMMAND.

 ALL SELECT   FOR ITEM=ELEM COMPONENT=    
  IN RANGE         1 TO        254 STEP          1

        254  ELEMENTS (OF        254  DEFINED) SELECTED BY  ESEL  COMMAND.

 PRINTOUT RESUMED BY /GOP

 USE AUTOMATIC TIME STEPPING THIS LOAD STEP

 USE       1 SUBSTEPS INITIALLY THIS LOAD STEP FOR ALL  DEGREES OF FREEDOM
 FOR AUTOMATIC TIME STEPPING:
   USE     10 SUBSTEPS AS A MAXIMUM
   USE      1 SUBSTEPS AS A MINIMUM

 TIME=  1.0000    

 ERASE THE CURRENT DATABASE OUTPUT CONTROL TABLE.


 WRITE ALL  ITEMS TO THE DATABASE WITH A FREQUENCY OF NONE
   FOR ALL APPLICABLE ENTITIES

 WRITE NSOL ITEMS TO THE DATABASE WITH A FREQUENCY OF ALL 
   FOR ALL APPLICABLE ENTITIES

 WRITE RSOL ITEMS TO THE DATABASE WITH A FREQUENCY OF ALL 
   FOR ALL APPLICABLE ENTITIES

 WRITE EANG ITEMS TO THE DATABASE WITH A FREQUENCY OF ALL 
   FOR ALL APPLICABLE ENTITIES

 WRITE ETMP ITEMS TO THE DATABASE WITH A FREQUENCY OF ALL 
   FOR ALL APPLICABLE ENTITIES

 WRITE VENG ITEMS TO THE DATABASE WITH A FREQUENCY OF ALL 
   FOR ALL APPLICABLE ENTITIES

 WRITE STRS ITEMS TO THE DATABASE WITH A FREQUENCY OF ALL 
   FOR ALL APPLICABLE ENTITIES

 WRITE EPEL ITEMS TO THE DATABASE WITH A FREQUENCY OF ALL 
   FOR ALL APPLICABLE ENTITIES

 WRITE EPPL ITEMS TO THE DATABASE WITH A FREQUENCY OF ALL 
   FOR ALL APPLICABLE ENTITIES

 WRITE CONT ITEMS TO THE DATABASE WITH A FREQUENCY OF ALL 
   FOR ALL APPLICABLE ENTITIES

 *GET  ANSINTER_  FROM  ACTI  ITEM=INT        VALUE=  0.00000000    

 *IF  ANSINTER_                         ( =   0.00000     )  NE  
      0                                 ( =   0.00000     )  THEN    

 *ENDIF

 *** NOTE ***                            CP =       0.719   TIME= 12:37:35
 The automatic domain decomposition logic has selected the MESH domain   
 decomposition method with 2 processes per solution.                     

 *****  ANSYS SOLVE    COMMAND  *****

 *** WARNING ***                         CP =       0.719   TIME= 12:37:35
 Element shape checking is currently inactive.  Issue SHPP,ON or         
 SHPP,WARN to reactivate, if desired.                                    

 *** NOTE ***                            CP =       0.719   TIME= 12:37:35
 Axisymmetric elements are present.  The nodal loads input with the F    
 commands and the reaction forces are on a full circle basis.  This      
 differs from the pre-ANSYS 5.0 interpretation.                          

 *** NOTE ***                            CP =       0.719   TIME= 12:37:35
 The model data was checked and warning messages were found.             
  Please review output or errors file (                                  
 C:\Users\krylo\AppData\Local\Temp\WB_krylo_6532_2\_ProjectScratch\Scr0F 
 FC7\file0.err ) for these warning messages.                             

 *** SELECTION OF ELEMENT TECHNOLOGIES FOR APPLICABLE ELEMENTS ***
      --- GIVE SUGGESTIONS AND RESET THE KEY OPTIONS ---

 ELEMENT TYPE         1 IS PLANE183 WITH AXISYMMETRIC OPTION. IT IS NOT ASSOCIATED
 WITH FULLY INCOMPRESSIBLE HYPERELASTIC MATERIALS. NO SUGGESTION IS AVAILABLE
 AND NO RESETTING IS NEEDED.

 ELEMENT TYPE         2 IS PLANE183 WITH AXISYMMETRIC OPTION. IT IS NOT ASSOCIATED
 WITH FULLY INCOMPRESSIBLE HYPERELASTIC MATERIALS. NO SUGGESTION IS AVAILABLE
 AND NO RESETTING IS NEEDED.



 *** ANSYS - ENGINEERING ANALYSIS SYSTEM  RELEASE 2021 R1          21.1     ***
 DISTRIBUTED ANSYS Mechanical Enterprise Academic Student      

 00000000  VERSION=WINDOWS x64   12:37:35  APR 03, 2021 CP=      0.719

 wbnew--Static Structural (A5)                                                 



                       S O L U T I O N   O P T I O N S

   PROBLEM DIMENSIONALITY. . . . . . . . . . . . .AXISYMMETRIC         
   DEGREES OF FREEDOM. . . . . . UX   UY   ROTZ
   ANALYSIS TYPE . . . . . . . . . . . . . . . . .STATIC (STEADY-STATE)
   OFFSET TEMPERATURE FROM ABSOLUTE ZERO . . . . .  273.15    
   EQUATION SOLVER OPTION. . . . . . . . . . . . .SPARSE             
   NEWTON-RAPHSON OPTION . . . . . . . . . . . . .PROGRAM CHOSEN   
   GLOBALLY ASSEMBLED MATRIX . . . . . . . . . . .SYMMETRIC  

 *** WARNING ***                         CP =       0.719   TIME= 12:37:35
 Material number 7 (used by element 237) should normally have at least   
 one MP or one TB type command associated with it.  Output of energy by  
 material may not be available.                                          

 *** NOTE ***                            CP =       0.719   TIME= 12:37:35
 The step data was checked and warning messages were found.              
  Please review output or errors file (                                  
 C:\Users\krylo\AppData\Local\Temp\WB_krylo_6532_2\_ProjectScratch\Scr0F 
 FC7\file0.err ) for these warning messages.                             

 *** NOTE ***                            CP =       0.719   TIME= 12:37:35
 This nonlinear analysis defaults to using the full Newton-Raphson       
 solution procedure.  This can be modified using the NROPT command.      

 *** NOTE ***                            CP =       0.719   TIME= 12:37:35
 The conditions for direct assembly have been met.  No .emat or .erot    
 files will be produced.                                                 

 *** NOTE ***                            CP =       0.719   TIME= 12:37:35
 Internal nodes from 682 to 682 are created.                             
 1 internal nodes are used for handling degrees of freedom on pilot      
 nodes of rigid target surfaces.                                         

 *** NOTE ***                            CP =       0.719   TIME= 12:37:35
 Internal nodes from 682 to 682 are created.                             
 1 internal nodes are used for handling degrees of freedom on pilot      
 nodes of rigid target surfaces.                                         

 *** NOTE ***                            CP =       0.750   TIME= 12:37:35
 Symmetric Deformable- deformable contact pair identified by real        
 constant set 3 and contact element type 3 has been set up.  The         
 companion pair has real constant set ID 4.  Both pairs should have the  
 same behavior.                                                          
 ANSYS will deactivate the current pair and keep its companion pair,     
 resulting in asymmetric contact.                                        
 Small sliding logic is assumed
 Contact algorithm: Augmented Lagrange method
 Contact detection at: Gauss integration point
 Contact stiffness factor FKN                  1.0000    
 The resulting initial contact stiffness      0.22857E+07
 Default penetration tolerance factor FTOLN   0.10000    
 The resulting penetration tolerance          0.12456    
 Frictionless contact pair is defined
 Update contact stiffness at each iteration
 Average contact surface length                1.1705    
 Average contact pair depth                    1.2456    
 User defined pinball region PINB             0.10735    
 *WARNING*: The user defined pinball radius may be too small to capture  
 contacting zone under small sliding assumption.                         
 *WARNING*: Initial penetration is included.

 *** NOTE ***                            CP =       0.750   TIME= 12:37:35
 Max.  Initial penetration 2.772566673E-03 was detected between contact  
 element 197 and target element 213.                                     
 You may move entire target surface by : x= 5.277127046E-06, y=          
 -2.77256165E-03, z= 0,to reduce initial penetration.                    
 ****************************************
  

 *** NOTE ***                            CP =       0.750   TIME= 12:37:35
 Symmetric Deformable- deformable contact pair identified by real        
 constant set 4 and contact element type 3 has been set up.  The         
 companion pair has real constant set ID 3.  Both pairs should have the  
 same behavior.                                                          
 ANSYS will keep the current pair and deactivate its companion pair,     
 resulting in asymmetric contact.                                        
 Small sliding logic is assumed
 Contact algorithm: Augmented Lagrange method
 Contact detection at: Gauss integration point
 Contact stiffness factor FKN                  1.0000    
 The resulting initial contact stiffness      0.22857E+07
 Default penetration tolerance factor FTOLN   0.10000    
 The resulting penetration tolerance          0.16888    
 Frictionless contact pair is defined
 Update contact stiffness at each iteration
 Average contact surface length                1.1052    
 Average contact pair depth                    1.6888    
 User defined pinball region PINB             0.10735    
 *WARNING*: The user defined pinball radius may be too small to capture  
 contacting zone under small sliding assumption.                         
 *WARNING*: Initial penetration is included.

 *** NOTE ***                            CP =       0.750   TIME= 12:37:35
 Max.  Initial penetration 2.227881742E-03 was detected between contact  
 element 207 and target element 190.                                     
 You may move entire target surface by : x= 4.072102363E-07, y=          
 2.227881704E-03, z= 0,to reduce initial penetration.                    
 ****************************************
  

 *** NOTE ***                            CP =       0.750   TIME= 12:37:35
 Rigid-deformable contact pair identified by real constant set 5 and     
 contact element type 5 has been set up.  The degrees of freedom of the  
 rigid surface are driven by the pilot node 681.                         
 Please verify constraints on the pilot node which may be
  automatically fixed by ANSYS.
 Small sliding logic is assumed
 Contact algorithm: Augmented Lagrange method
 Contact detection at: Gauss integration point
 Default contact stiffness factor FKN          1.0000    
 The resulting initial contact stiffness      0.22916E+07
 Default penetration tolerance factor FTOLN   0.10000    
 The resulting penetration tolerance          0.16844    
 Frictionless contact pair is defined
 Use constant contact stiffness
 Average contact surface length                1.5000    
 Average contact pair depth                    1.6844    
 Default pinball region factor PINB            1.5000    
 The resulting pinball region                  2.5266    
 *WARNING*: Initial penetration is included.

 *** NOTE ***                            CP =       0.750   TIME= 12:37:35
 Max.  Initial penetration 4.440892099E-16 was detected between contact  
 element 216 and target element 226.                                     
 ****************************************
  
  
  

 *** NOTE ***                            CP =       0.750   TIME= 12:37:35
 Internal nodes from 682 to 682 are created.                             
 1 internal nodes are used for handling degrees of freedom on pilot      
 nodes of rigid target surfaces.                                         

  
  
     D I S T R I B U T E D   D O M A I N   D E C O M P O S E R
  
  ...Number of elements: 254
  ...Number of nodes:    682
  ...Decompose to 2 CPU domains
  ...Element load balance ratio =     1.052


                      L O A D   S T E P   O P T I O N S

   LOAD STEP NUMBER. . . . . . . . . . . . . . . .     1
   TIME AT END OF THE LOAD STEP. . . . . . . . . .  1.0000    
   AUTOMATIC TIME STEPPING . . . . . . . . . . . .    ON
      INITIAL NUMBER OF SUBSTEPS . . . . . . . . .     1
      MAXIMUM NUMBER OF SUBSTEPS . . . . . . . . .    10
      MINIMUM NUMBER OF SUBSTEPS . . . . . . . . .     1
   MAXIMUM NUMBER OF EQUILIBRIUM ITERATIONS. . . .    15
   STEP CHANGE BOUNDARY CONDITIONS . . . . . . . .    NO
   TERMINATE ANALYSIS IF NOT CONVERGED . . . . . .YES (EXIT)  
   CONVERGENCE CONTROLS. . . . . . . . . . . . . .USE DEFAULTS
   PRINT OUTPUT CONTROLS . . . . . . . . . . . . .NO PRINTOUT
   DATABASE OUTPUT CONTROLS
      ITEM     FREQUENCY   COMPONENT
       ALL       NONE               
      NSOL        ALL               
      RSOL        ALL               
      EANG        ALL               
      ETMP        ALL               
      VENG        ALL               
      STRS        ALL               
      EPEL        ALL               
      EPPL        ALL               
      CONT        ALL               


 SOLUTION MONITORING INFO IS WRITTEN TO FILE= file.mntr                                                                                                                                                                                                                                                           

 *** NOTE ***                            CP =       0.859   TIME= 12:37:36
 Rigid-deformable contact pair identified by real constant set 5 and     
 contact element type 5 has been set up.  The degrees of freedom of the  
 rigid surface are driven by the pilot node 681.                         
 Please verify constraints on the pilot node which may be
  automatically fixed by ANSYS.
 Small sliding logic is assumed
 Contact algorithm: Augmented Lagrange method
 Contact detection at: Gauss integration point
 Default contact stiffness factor FKN          1.0000    
 The resulting initial contact stiffness      0.22916E+07
 Default penetration tolerance factor FTOLN   0.10000    
 The resulting penetration tolerance          0.16844    
 Frictionless contact pair is defined
 Use constant contact stiffness
 Average contact surface length                1.5000    
 Average contact pair depth                    1.6844    
 Default pinball region factor PINB            1.5000    
 The resulting pinball region                  2.5266    
 *WARNING*: Initial penetration is included.

 *** NOTE ***                            CP =       0.859   TIME= 12:37:36
 Max.  Initial penetration 4.440892099E-16 was detected between contact  
 element 216 and target element 226.                                     
 ****************************************
  
 MAXIMUM NUMBER OF EQUILIBRIUM ITERATIONS HAS BEEN MODIFIED              
  TO BE, NEQIT = 26, BY SOLUTION CONTROL LOGIC.                          

  
 The FEA model contains 0 external CE equations and 1 internal CE        
 equations.                                                              
  
 *************************************************
  SUMMARY FOR CONTACT PAIR IDENTIFIED BY REAL CONSTANT SET           5
 Max.  Penetration of -4.440892099E-16 has been detected between contact 
 element 225 and target element 235.                                     
 For total 10 contact elements, there are 10 elements are in contact.    
 Contacting area 2007.75928.                                             
 Max.  Pinball distance 2.52660054.                                      
 One of the contact searching regions contains at least 10 target        
 elements.                                                               
 Max.  Pressure/force 3.053046759E-09.                                   
 Max.  Normal stiffness 2291616.71.                                      
 Min.  Normal stiffness 2291616.71.                                      
 Contact pair force norm 8.954920359E-05 and criterion 8.954920492E-06.  
 *************************************************



            **** CENTER OF MASS, MASS, AND MASS MOMENTS OF INERTIA ****

  CALCULATIONS ASSUME ELEMENT MASS AT ELEMENT CENTROID

  TOTAL MASS =  0.29568E-03


 MASS AND MOMENT VALUES ARE EVALUATED FOR AN AXISYMMETRIC 360. DEGREE MODEL.

                    MOM. OF INERTIA      MOM. OF INERTIA     RADIUS OF GYRATION
 CENTER OF MASS      ABOUT ORIGIN     ABOUT CENTER OF MASS  ABOUT CENTER OF MASS

 XC =   0.0000       IXX =   0.9989E-01   IXX =   0.9695E-01  RGX =    18.11    
 YC =   3.1521       IYY =   0.1787       IYY =   0.1787      RGY =    24.58    


  *** MASS SUMMARY BY ELEMENT TYPE ***

  TYPE      MASS
     1  0.111828E-03
     2  0.183851E-03

 Range of element maximum matrix coefficients in global coordinates
 Maximum = 2.777403798E+10 at element 216.                               
 Minimum = 3970169.28 at element 149.                                    

   *** ELEMENT MATRIX FORMULATION TIMES
     TYPE    NUMBER   ENAME      TOTAL CP  AVE CP

        1        34  PLANE183      0.000   0.000000
        2       155  PLANE183      0.000   0.000000
        3        13  CONTA172      0.000   0.000000
        4        13  TARGE169      0.000   0.000000
        5        10  CONTA172      0.000   0.000000
        6        11  TARGE169      0.000   0.000000
        7        18  SURF153       0.000   0.000000
 Time at end of element matrix formulation CP = 1.09375.                 

 ALL CURRENT ANSYS DATA WRITTEN TO FILE NAME= file.rdb
  FOR POSSIBLE RESUME FROM THIS POINT
     FORCE CONVERGENCE VALUE  =  0.1148E+07  CRITERION=   34.80    

 DISTRIBUTED SPARSE MATRIX DIRECT SOLVER.
  Number of equations =        1300,    Maximum wavefront =     60

  Local memory allocated for solver              =      0.868 MB
  Local memory required for in-core solution     =      0.837 MB
  Local memory required for out-of-core solution =      0.768 MB

  Total memory allocated for solver              =      1.651 MB
  Total memory required for in-core solution     =      1.593 MB
  Total memory required for out-of-core solution =      1.492 MB

 *** NOTE ***                            CP =       1.156   TIME= 12:37:36
 The Distributed Sparse Matrix Solver is currently running in the        
 in-core memory mode.  This memory mode uses the most amount of memory   
 in order to avoid using the hard drive as much as possible, which most  
 often results in the fastest solution time.  This mode is recommended   
 if enough physical memory is present to accommodate all of the solver   
 data.                                                                   
 curEqn=    666  totEqn=    666 Job CP sec=      1.156
      Factor Done= 100% Factor Wall sec=      0.010 rate=     168.2 Mflops
 Distributed sparse solver maximum pivot= 373955049 at node 63 UY.       
 Distributed sparse solver minimum pivot= 321844.076 at node 159 UY.     
 Distributed sparse solver minimum pivot in absolute value= 321844.076   
 at node 159 UY.                                                         
     DISP CONVERGENCE VALUE   =  0.1716E-02  CRITERION=  0.8754E-05
    EQUIL ITER   1 COMPLETED.  NEW TRIANG MATRIX.  MAX DOF INC=  0.1716E-02
     DISP CONVERGENCE VALUE   =  0.1692E-02  CRITERION=  0.5206E-04
     LINE SEARCH PARAMETER =  0.9859     SCALED MAX DOF INC =  0.1692E-02
     FORCE CONVERGENCE VALUE  =  0.2755E+05  CRITERION=   25.93    
    EQUIL ITER   2 COMPLETED.  NEW TRIANG MATRIX.  MAX DOF INC=  0.1088E-02
     DISP CONVERGENCE VALUE   =  0.1088E-02  CRITERION=  0.5312E-03
     LINE SEARCH PARAMETER =   1.000     SCALED MAX DOF INC =  0.1088E-02
     FORCE CONVERGENCE VALUE  =   52.72      CRITERION=   53.49     <<< CONVERGED
    EQUIL ITER   3 COMPLETED.  NEW TRIANG MATRIX.  MAX DOF INC=  0.1942E-05
     DISP CONVERGENCE VALUE   =  0.1942E-05  CRITERION=  0.5421E-03 <<< CONVERGED
     LINE SEARCH PARAMETER =   1.000     SCALED MAX DOF INC =  0.1942E-05
    >>> SOLUTION CONVERGED AFTER EQUILIBRIUM ITERATION   3

   *** ELEMENT RESULT CALCULATION TIMES
     TYPE    NUMBER   ENAME      TOTAL CP  AVE CP

        1        34  PLANE183      0.000   0.000000
        2       155  PLANE183      0.062   0.000403
        3        13  CONTA172      0.000   0.000000
        5        10  CONTA172      0.000   0.000000
        7        18  SURF153       0.000   0.000000

   *** NODAL LOAD CALCULATION TIMES
     TYPE    NUMBER   ENAME      TOTAL CP  AVE CP

        1        34  PLANE183      0.000   0.000000
        2       155  PLANE183      0.000   0.000000
        3        13  CONTA172      0.000   0.000000
        5        10  CONTA172      0.000   0.000000
        7        18  SURF153       0.000   0.000000
 *** LOAD STEP     1   SUBSTEP     1  COMPLETED.    CUM ITER =      3
 *** TIME =   1.00000         TIME INC =   1.00000    


 *** ANSYS BINARY FILE STATISTICS
  BUFFER SIZE USED= 16384
        0.312 MB WRITTEN ON ELEMENT SAVED DATA FILE: file0.esav
        0.188 MB WRITTEN ON ASSEMBLED MATRIX FILE: file0.full
        0.375 MB WRITTEN ON RESULTS FILE: file0.rst
 *************** Write FE CONNECTORS *********

 WRITE OUT CONSTRAINT EQUATIONS TO FILE= file.ce                                                                                                                                                                                                                                                             
 ****************************************************
 *************** FINISHED SOLVE FOR LS 1 *************

 *GET  _WALLASOL  FROM  ACTI  ITEM=TIME WALL  VALUE=  12.6266667    

 PRINTOUT RESUMED BY /GOP

 FINISH SOLUTION PROCESSING


 ***** ROUTINE COMPLETED *****  CP =         1.391



 *** ANSYS - ENGINEERING ANALYSIS SYSTEM  RELEASE 2021 R1          21.1     ***
 DISTRIBUTED ANSYS Mechanical Enterprise Academic Student      

 00000000  VERSION=WINDOWS x64   12:37:36  APR 03, 2021 CP=      1.406

 wbnew--Static Structural (A5)                                                 



          ***** ANSYS RESULTS INTERPRETATION (POST1) *****

 *** NOTE ***                            CP =       1.406   TIME= 12:37:36
 Reading results into the database (SET command) will update the current 
 displacement and force boundary conditions in the database with the     
 values from the results file for that load set.  Note that any          
 subsequent solutions will use these values unless action is taken to    
 either SAVE the current values or not overwrite them (/EXIT,NOSAVE).    

 Set Encoding of XML File to:ISO-8859-1

 Set Output of XML File to:
     PARM,     ,     ,     ,     ,     ,     ,     ,     ,     ,     ,     ,
         ,     ,     ,     ,     ,     ,     ,

 DATABASE WRITTEN ON FILE  parm.xml                                                                                                                                                                                                                                                            

 EXIT THE ANSYS POST1 DATABASE PROCESSOR


 ***** ROUTINE COMPLETED *****  CP =         1.422



 PRINTOUT RESUMED BY /GOP

 *GET  _WALLDONE  FROM  ACTI  ITEM=TIME WALL  VALUE=  12.6266667    

 PARAMETER _PREPTIME =     0.000000000    

 PARAMETER _SOLVTIME =     1.000000000    

 PARAMETER _POSTTIME =     0.000000000    

 PARAMETER _TOTALTIM =     1.000000000    

 *GET  _DLBRATIO  FROM  ACTI  ITEM=SOLU DLBR  VALUE=  1.05172414    

 *GET  _COMBTIME  FROM  ACTI  ITEM=SOLU COMB  VALUE= 0.250307000E-01
 --- Total number of nodes = 681
 --- Total number of elements = 254
 --- Element load balance ratio = 1.05172414
 --- Time to combine distributed files = 2.50307E-02

 EXIT ANSYS WITHOUT SAVING DATABASE


 NUMBER OF WARNING MESSAGES ENCOUNTERED=          2
 NUMBER OF ERROR   MESSAGES ENCOUNTERED=          0

+--------- D I S T R I B U T E D   A N S Y S   S T A T I S T I C S ------------+

Release: 2021 R1            Build: 21.1       Update: UP20201109   Platform: WINDOWS x64 
Date Run: 04/03/2021   Time: 12:37     Process ID: 1372
Operating System: Windows 10  (Build: 19041)

Processor Model: AMD Ryzen 5 3500U with Radeon Vega Mobile Gfx

Compiler: Intel(R) FORTRAN Compiler Version 19.0.0  (Build: 20190206)
          Intel(R) C/C++ Compiler Version 19.0.0  (Build: 20190206)
          Intel(R) Math Kernel Library Version 2020.0.0 Product Build 20191125

Number of machines requested            :    1
Total number of cores available         :    8
Number of physical cores available      :    4
Number of processes requested           :    2
Number of threads per process requested :    1
Total number of cores requested         :    2 (Distributed Memory Parallel)               
MPI Type: INTELMPI
MPI Version: Intel(R) MPI Library 2018 Update 3 for Windows* OS


GPU Acceleration: Not Requested

Job Name: file0
Input File: dummy.dat

  Core                Machine Name   Working Directory
 -----------------------------------------------------
     0             LAPTOP-LVC8AETN   C:\Users\krylo\AppData\Local\Temp\WB_krylo_6532_2\_ProjectScratch\Scr0FC7
     1             LAPTOP-LVC8AETN   C:\Users\krylo\AppData\Local\Temp\WB_krylo_6532_2\_ProjectScratch\Scr0FC7
 
Latency time from master to core     1 =    1.476 microseconds
 
Communication speed from master to core     1 =  1782.43 MB/sec

Total CPU time for main thread                    :        1.5 seconds
Total CPU time summed for all threads             :        1.7 seconds

Elapsed time spent obtaining a license            :        0.5 seconds
Elapsed time spent pre-processing model (/PREP7)  :        0.1 seconds
Elapsed time spent solution - preprocessing       :        0.0 seconds
Elapsed time spent computing solution             :        0.7 seconds
Elapsed time spent solution - postprocessing      :        0.0 seconds
Elapsed time spent post-processing model (/POST1) :        0.0 seconds
 
Equation solver used                              :            Sparse (symmetric)
Equation solver effective I/O rate                :        1.9 GB/sec

Maximum total memory used                         :       86.0 MB
Maximum total memory allocated                    :     3136.0 MB
Total physical memory available                   :          7 GB

Total amount of I/O written to disk               :        0.0 GB
Total amount of I/O read from disk                :        0.0 GB

+------ E N D   D I S T R I B U T E D   A N S Y S   S T A T I S T I C S -------+


 *---------------------------------------------------------------------------*
 |                                                                           |
 |                       DISTRIBUTED ANSYS RUN COMPLETED                     |
 |                                                                           |
 |---------------------------------------------------------------------------|
 |                                                                           |
 | Ansys 2021 R1               Build 21.1         UP20201109     WINDOWS x64 |
 |                                                                           |
 |---------------------------------------------------------------------------|
 |                                                                           |
 | Database Requested(-db)  1024 MB    Scratch Memory Requested      1024 MB |
 | Maximum Database Used       1 MB    Maximum Scratch Memory Used     42 MB |
 |                                                                           |
 |---------------------------------------------------------------------------|
 |                                                                           |
 |        CP Time      (sec) =          1.703       Time  =  12:37:37        |
 |        Elapsed Time (sec) =          4.000       Date  =  04/03/2021      |
 |                                                                           |
 *---------------------------------------------------------------------------*
